@<TRIPOS>MOLECULE
OPC
    4    3    1    0    0
SMALL
NO_CHARGES
****
Energy = 0

@<TRIPOS>ATOM
      1  O         0.00000   0.00000   0.00000    O    1  OPC        0.000000
      2  H        -0.68990   0.58590   0.00000    H    1  OPC        0.000000
      3  H         0.68990   0.58590   0.00000    H    1  OPC        0.000000
      4  _LP       0.00000   0.15940   0.00000    H    1  OPC        0.000000
@<TRIPOS>BOND
    1     1     3  1
    2     1     2  1
    3     1     4  1

@<TRIPOS>SUBSTRUCTURE
1 ****        1 TEMP                        0 ****  **** 0 ROOT

#generated by VMD
# note: when loaded in mbuild it may have a MW of ~19 as the Lone pair needs to have a element associated with it, so it was make hydrogen.  
